power-flow-agent/results/ieee14/2026-09-18/gpt-5.4/plan_act_nogate/traces/19_case14-multistep-034-s0.transcript.txt
==============================================================================
TRANSCRIPT  plan_act_nogate  |  openrouter:openai/gpt-5.4  |  case14  |  case14-multistep-034-s0  run 0
==============================================================================
date: 2026-09-18   seed: 0   difficulty: multistep   tool variant: None

[system]   (hash 7da5e2a37ec4, from methods/plan_act_nogate/method.json prompt_files)
You are a power system power-flow analysis assistant. You help the user complete power system analysis tasks from natural-language requests.

## What you can do
You complete tasks by calling tool functions:
1. Load an IEEE standard test system (14, 30, 57, 118, 300 buses)
2. Run AC power flow
3. Modify the load at a bus and re-solve
4. Disconnect or reconnect a line and re-solve
5. Query the network status
6. Run an N-1 contingency analysis (disconnect branches one at a time and rank the worst cases)
7. Generate remedial-action suggestions (what-if load shedding or voltage adjustment) to reduce violation risk

## Key rules
- Never fabricate any numerical result. Every voltage, power, loss, or loading value must come from a tool return value.
- If a tool reports an error or a non-converged power flow, say so explicitly and do not report numbers for that state.
- If the request is ambiguous, state the interpretation you are using.
- Bus and line identifiers in the request are MATPOWER 1-based ids; pass them to the tools as given, unless the request itself states a different indexing convention for that identifier (e.g. "(0-based)"), in which case convert it to the MATPOWER 1-based id before calling any tool.
- After a network modification, re-solve before reporting any value.
- Always reply in English.

## Reply format
After each analysis, reply in this structure:
1. One-sentence summary
2. Key numbers (total load, total generation, total losses, voltage range) taken from the tool outputs
3. Violations, if any
4. Suggested next step

[user]
Load case14, disconnect the line between bus 2 and bus 5, set the active load at bus 9 to 19.9 MW, and finally rerun the power flow, then list every line whose loading is above 100%.

[tools available to the model]   (function-calling schema, --tool-variant v1; enum values and defaults as sent)
  load_case(case_name: string* in {case14, case30, case57, case118, case300})  Load IEEE test case.
  run_powerflow()  Run power flow on current case.
  modify_load(bus_id: integer*, p_mw: number*, q_mvar: number)  Modify bus load and recompute.
  disconnect_line(from_bus: integer*, to_bus: integer*)  Disconnect line/branch between two buses and recompute.
  reconnect_line(from_bus: integer*, to_bus: integer*)  Reconnect line/branch between two buses and recompute.
  get_most_loaded_branch()  Get most loaded branch.
  run_n1_contingency(top_k: integer (default 5), criteria: string in {max_violations, max_overload, min_voltage} (default max_violations), max_candidates: integer (default 0))  Run N-1 contingency analysis.
  recommend_remedial_actions(max_actions: integer (default 5), allow_load_shed: boolean (default True), allow_voltage_control: boolean (default True), include_best_comparison: boolean (default True))  Recommend remedial actions.
  apply_remedial_action(action_index: integer*, confirmed: boolean (default False))  Apply one remedial action by index.
  get_status()  Get current network status.
  generate_plot(plot_type: string* in {voltage_heatmap, flow_diagram, violation_overview, comparison})  Generate one plot.

[planner system prompt]   (hash 7f71af6e03f2; as assembled today from methods/plan_act; the planning call sends this plus the request)
You are the planner of a power-system analysis agent. You cannot call tools yourself. Given the user's request, output ONLY a JSON object of the form
{"plan": [{"tool": "<tool_name>", "args": {...}}, ...]}
listing, in execution order, every tool call needed to answer the request. Use only the tools below with exactly these argument names (* = required); where an argument lists allowed values, use one of them verbatim. Bus and line identifiers in the request are MATPOWER 1-based ids; pass them to the tools as given, unless the request itself states a different indexing convention for that identifier (e.g. "(0-based)"), in which case convert it to the MATPOWER 1-based id. Do not include explanations, markdown, or any text outside the JSON.

Available tools:
- load_case(case_name: string in {case14, case30, case57, case118, case300}*): Load IEEE test case.
- run_powerflow((none)): Run power flow on current case.
- modify_load(bus_id: integer*, p_mw: number*, q_mvar: number): Modify bus load and recompute.
- disconnect_line(from_bus: integer*, to_bus: integer*): Disconnect line/branch between two buses and recompute.
- reconnect_line(from_bus: integer*, to_bus: integer*): Reconnect line/branch between two buses and recompute.
- get_most_loaded_branch((none)): Get most loaded branch.
- run_n1_contingency(top_k: integer, criteria: string in {max_violations, max_overload, min_voltage}, max_candidates: integer): Run N-1 contingency analysis.
- recommend_remedial_actions(max_actions: integer, allow_load_shed: boolean, allow_voltage_control: boolean, include_best_comparison: boolean): Recommend remedial actions.
- apply_remedial_action(action_index: integer*, confirmed: boolean): Apply one remedial action by index.
- get_status((none)): Get current network status.
- generate_plot(plot_type: string in {voltage_heatmap, flow_diagram, violation_overview, comparison}*): Generate one plot.

[planner output]
[
 {
  "tool": "load_case",
  "args": {
   "case_name": "case14"
  }
 },
 {
  "tool": "disconnect_line",
  "args": {
   "from_bus": 2,
   "to_bus": 5
  }
 },
 {
  "tool": "modify_load",
  "args": {
   "bus_id": 9,
   "p_mw": 19.9,
   "q_mvar": 0
  }
 },
 {
  "tool": "run_powerflow",
  "args": {}
 },
 {
  "tool": "get_status",
  "args": {}
 }
]

--- round 1 ---
[assistant]   (385 in / 87 out tokens, 4.4 s)
{"plan":[{"tool":"load_case","args":{"case_name":"case14"}},{"tool":"disconnect_line","args":{"from_bus":2,"to_bus":5}},{"tool":"modify_load","args":{"bus_id":9,"p_mw":19.9,"q_mvar":0}},{"tool":"run_powerflow","args":{}},{"tool":"get_status","args":{}}]}

--- round 2 ---
[tool load_case]   (gate: not applied)
{"case_name": "case14", "n_buses": 14, "n_generators": 5, "n_lines": 20, "n_loads": 11, "total_load_mw": 253.67038588043255, "total_gen_capacity_mw": 772.4000000000001}
[tool disconnect_line]   (gate: pass)
{"case_name": "case14", "converged": true, "bus_voltages": [{"bus_id": 1, "vm_pu": 1.06, "va_deg": 0.0, "is_violation": true, "violation_type": "overvoltage"}, {"bus_id": 2, "vm_pu": 1.045, "va_deg": -4.350630560329655, "is_violation": false, "violation_type": null}, {"bus_id": 3, "vm_pu": 1.01, "va_deg": -12.818987491013672, "is_violation": false, "violation_type": null}, {"bus_id": 4, "vm_pu": 1.011364963318974, "va_deg": -11.389253342293516, "is_violation": false, "violation_type": null}, {"bus_id": 5, "vm_pu": 1.0102025202172835, "va_deg": -10.479348901265567, "is_violation": false, "violation_type": null}, {"bus_id": 6, "vm_pu": 1.0699999999999996, "va_deg": -16.017025857236632, "is_violation": true, "violation_type": "overvoltage"}, {"bus_id": 7, "vm_pu": 1.0585248207135995, "va_deg": -14.678801849441752, "is_violation": true, "violation_type": "overvoltage"}, {"bus_id": 8, "vm_pu": 1.0899999999999996, "va_deg": -14.678801849441752, "is_violation": true, "violation_type": "overvoltage"}, {"bus_id": 9, "vm_pu": 1.0530677403587696, "va_deg": -16.377478172335245, "is_violation": true, "violation_type": "overvoltage"}, {"bus_id": 10, "vm_pu": 1.0486508588764778, "va_deg": -16.599895699766762, "is_violation": false, "violation_type": null}, {"bus_id": 11, "vm_pu": 1.0554818278870999, "va_deg": -16.448721311428763, "is_violation": true, "violation_type": "overvoltage"}, {"bus_id": 12, "vm_pu": 1.053948529780952, "va_deg": -16.905519188405112, "is_violation": true, "violation_type": "overvoltage"}, {"bus_id": 13, "vm_pu": 1.0485884296407628, "va_deg": -16.967898235845677, "is_violation": false, "violation_type": null}, {"bus_id": 14, "vm_pu": 1.0315519649748985, "va_deg": -17.72445510238287, "is_violation": false, "violation_type": null}], "line_flows": [{"line_id": 0, "from_bus": 1, "to_bus": 2, "p_from_mw": 137.7999670146342, "q_from_mvar": -15.833943824531957, "loading_percent": 1.321771353176607, "is_violation": false}, {"line_id": 1, "from_bus": 1, "to_bus": 5, "p_from_mw": 89.72850383046571, "q_from_mvar": 7.17391144090692, "loading_percent": 0.8588185376553776, "is_violation": false}, {"line_id": 2, "from_bus": 2, "to_bus": 3, "p_from_mw": 79.78140659723671, "q_from_mvar": 2.9592382102220203, "loading_percent": 0.7717004447432088, "is_violation": false}, {"line_id": 3, "from_bus": 2, "to_bus": 4, "p_from_mw": 73.52323562495215, "q_from_mvar": -1.6357530052427287, "loading_percent": 0.7108542804108726, "is_violation": false}, {"line_id": 4, "from_bus": 2, "to_bus": 5, "p_from_mw": 0.0, "q_from_mvar": 0.0, "loading_percent": 0.0, "is_violation": false}, {"line_id": 5, "from_bus": 3, "to_bus": 4, "p_from_mw": -13.129471632242588, "q_from_mvar": 3.8711709237092604, "loading_percent": 0.1409971755433694, "is_violation": false}, {"line_id": 6, "from_bus": 4, "to_bus": 5, "p_from_mw": -34.117722598592515, "q_from_mvar": 13.914039724313668, "loading_percent": 0.367998403210233, "is_violation": false}, {"line_id": 7, "from_bus": 6, "to_bus": 11, "p_from_mw": 6.526997278177013, "q_from_mvar": 4.709481325272876, "loading_percent": 0.07598091909018631, "is_violation": false}, {"line_id": 8, "from_bus": 6, "to_bus": 12, "p_from_mw": 8.195384640011136, "q_from_mvar": 2.829332646242812, "loading_percent": 0.08184680326304698, "is_violation": false}, {"line_id": 9, "from_bus": 6, "to_bus": 13, "p_from_mw": 18.51067939806354, "q_from_mvar": 8.3058822692476, "loading_percent": 0.1915296804050345, "is_violation": false}, {"line_id": 10, "from_bus": 9, "to_bus": 10, "p_from_mw": 6.26162729008079, "q_from_mvar": 3.157126936381289, "loading_percent": 0.06726398073106343, "is_violation": false}, {"line_id": 11, "from_bus": 9, "to_bus": 14, "p_from_mw": 11.004037143205762, "q_from_mvar": 3.3177420436486473, "loading_percent": 0.11024368816666956, "is_violation": false}, {"line_id": 12, "from_bus": 10, "to_bus": 11, "p_from_mw": -2.6324289932663794, "q_from_mvar": -2.6029785255005393, "loading_percent": 0.035659582503977764, "is_violation": false}, {"line_id": 13, "from_bus": 12, "to_bus": 13, "p_from_mw": 1.6772393813916722, "q_from_mvar": 0.9728674198255899, "loading_percent": 0.01858302428369396, "is_violation": false}, {"line_id": 14, "from_bus": 13, "to_bus": 14, "p_from_mw": 5.348208496374362, "q_from_mvar": 2.5334302401150937, "loading_percent": 0.057006943162505166, "is_violation": false}, {"line_id": 100000, "from_bus": 4, "to_bus": 7, "p_from_mw": 30.036516724498114, "q_from_mvar": -11.208119566383552, "loading_percent": 0.32019476338181835, "is_violation": false}, {"line_id": 100001, "from_bus": 4, "to_bus": 9, "p_from_mw": 17.183027561172594, "q_from_mvar": -1.0056720236501737, "loading_percent": 0.17190920679481625, "is_violation": false}, {"line_id": 100002, "from_bus": 5, "to_bus": 6, "p_from_mw": 44.408891214366065, "q_from_mvar": 8.129535907841252, "loading_percent": 0.45142323478076246, "is_violation": false}, {"line_id": 100003, "from_bus": 7, "to_bus": 8, "p_from_mw": -1.0030216300039673e-14, "q_from_mvar": -18.91414051153281, "loading_percent": 0.18048884695034412, "is_violation": false}, {"line_id": 100004, "from_bus": 7, "to_bus": 9, "p_from_mw": 30.036516724071937, "q_from_mvar": 5.696131734356899, "loading_percent": 0.29173298487185634, "is_violation": false}], "total_generation_mw": 267.4347748610819, "total_load_mw": 253.67038588043255, "total_loss_mw": 13.76438899885294, "voltage_violations": [{"bus_id": 1, "vm_pu": 1.06, "va_deg": 0.0, "is_violation": true, "violation_type": "overvoltage"}, {"bus_id": 6, "vm_pu": 1.0699999999999996, "va_deg": -16.017025857236632, "is_violation": true, "violation_type": "overvoltage"}, {"bus_id": 7, "vm_pu": 1.0585248207135995, "va_deg": -14.678801849441752, "is_violation": true, "violation_type": "overvoltage"}, {"bus_id": 8, "vm_pu": 1.0899999999999996, "va_deg": -14.678801849441752, "is_violation": true, "violation_type": "overvoltage"}, {"bus_id": 9, "vm_pu": 1.0530677403587696, "va_deg": -16.377478172335245, "is_violation": true, "violation_type": "overvoltage"}, {"bus_id": 11, "vm_pu": 1.0554818278870999, "va_deg": -16.448721311428763, "is_violation": true, "violation_type": "overvoltage"}, {"bus_id": 12, "vm_pu": 1.053948529780952, "va_deg": -16.905519188405112, "is_violation": true, "violation_type": "overvoltage"}], "thermal_violations": [], "summary_text": "", "solver_backend": "pandapower", "llm_prompt": null, "llm_response": null}
[tool modify_load]   (gate: pass)
{"case_name": "case14", "converged": true, "bus_voltages": [{"bus_id": 1, "vm_pu": 1.06, "va_deg": 0.0, "is_violation": true, "violation_type": "overvoltage"}, {"bus_id": 2, "vm_pu": 1.0450000000000002, "va_deg": -4.1339545556712745, "is_violation": false, "violation_type": null}, {"bus_id": 3, "vm_pu": 1.01, "va_deg": -12.355371041492045, "is_violation": false, "violation_type": null}, {"bus_id": 4, "vm_pu": 1.0169530964219557, "va_deg": -10.82717571956562, "is_violation": false, "violation_type": null}, {"bus_id": 5, "vm_pu": 1.0149364872045445, "va_deg": -9.91574340485343, "is_violation": false, "violation_type": null}, {"bus_id": 6, "vm_pu": 1.0699999999999998, "va_deg": -14.91333618322415, "is_violation": true, "violation_type": "overvoltage"}, {"bus_id": 7, "vm_pu": 1.0697089335688945, "va_deg": -13.649478449738353, "is_violation": true, "violation_type": "overvoltage"}, {"bus_id": 8, "vm_pu": 1.0899999999999999, "va_deg": -13.649478449738353, "is_violation": true, "violation_type": "overvoltage"}, {"bus_id": 9, "vm_pu": 1.0737565356059877, "va_deg": -15.086841081114438, "is_violation": true, "violation_type": "overvoltage"}, {"bus_id": 10, "vm_pu": 1.0658902023327828, "va_deg": -15.344038712816088, "is_violation": true, "violation_type": "overvoltage"}, {"bus_id": 11, "vm_pu": 1.064397208823757, "va_deg": -15.276727204219151, "is_violation": true, "violation_type": "overvoltage"}, {"bus_id": 12, "vm_pu": 1.0554489080830203, "va_deg": -15.772536816189216, "is_violation": true, "violation_type": "overvoltage"}, {"bus_id": 13, "vm_pu": 1.0517322491870134, "va_deg": -15.838677748733039, "is_violation": true, "violation_type": "overvoltage"}, {"bus_id": 14, "vm_pu": 1.0448637960749778, "va_deg": -16.477731796596586, "is_violation": false, "violation_type": null}], "line_flows": [{"line_id": 0, "from_bus": 1, "to_bus": 2, "p_from_mw": 131.2688697198013, "q_from_mvar": -14.218516502483006, "loading_percent": 1.2582110782032938, "is_violation": false}, {"line_id": 1, "from_bus": 1, "to_bus": 5, "p_from_mw": 85.00565315308522, "q_from_mvar": 5.265672668654163, "loading_percent": 0.8120484613796018, "is_violation": false}, {"line_id": 2, "from_bus": 2, "to_bus": 3, "p_from_mw": 77.55427991409746, "q_from_mvar": 3.1543879412055413, "loading_percent": 0.7502784011677892, "is_violation": false}, {"line_id": 3, "from_bus": 2, "to_bus": 4, "p_from_mw": 69.52908950371722, "q_from_mvar": -4.04073342168625, "loading_percent": 0.6732048292083797, "is_violation": false}, {"line_id": 4, "from_bus": 2, "to_bus": 5, "p_from_mw": 0.0, "q_from_mvar": 0.0, "loading_percent": 0.0, "is_violation": false}, {"line_id": 5, "from_bus": 3, "to_bus": 4, "p_from_mw": -15.20673290045581, "q_from_mvar": 1.4126970232302491, "loading_percent": 0.1543283847848658, "is_violation": false}, {"line_id": 6, "from_bus": 4, "to_bus": 5, "p_from_mw": -33.93563410491793, "q_from_mvar": 15.938713903768823, "loading_percent": 0.3723964646278368, "is_violation": false}, {"line_id": 7, "from_bus": 6, "to_bus": 11, "p_from_mw": 4.13379141463084, "q_from_mvar": 1.0515927581634972, "loading_percent": 0.04026670224126957, "is_violation": false}, {"line_id": 8, "from_bus": 6, "to_bus": 12, "p_from_mw": 7.773646389481459, "q_from_mvar": 2.401023053539443, "loading_percent": 0.07680543400973562, "is_violation": false}, {"line_id": 9, "from_bus": 6, "to_bus": 13, "p_from_mw": 17.193918628395842, "q_from_mvar": 6.3863333353798915, "loading_percent": 0.17314876888592365, "is_violation": false}, {"line_id": 10, "from_bus": 9, "to_bus": 10, "p_from_mw": 8.625711781467714, "q_from_mvar": 6.7623894574138514, "loading_percent": 0.10310739435458298, "is_violation": false}, {"line_id": 11, "from_bus": 9, "to_bus": 14, "p_from_mw": 12.713844088739949, "q_from_mvar": 5.619411275136194, "loading_percent": 0.13076291424093275, "is_violation": false}, {"line_id": 12, "from_bus": 10, "to_bus": 11, "p_from_mw": -0.28738332116181664, "q_from_mvar": 0.9517093207174256, "loading_percent": 0.009421183839873793, "is_violation": false}, {"line_id": 13, "from_bus": 12, "to_bus": 13, "p_from_mw": 1.265136144125567, "q_from_mvar": 0.5646109777546142, "loading_percent": 0.013258831361093711, "is_violation": false}, {"line_id": 14, "from_bus": 13, "to_bus": 14, "p_from_mw": 3.666474027692103, "q_from_mvar": 0.29452991518378874, "loading_percent": 0.03532685506915868, "is_violation": false}, {"line_id": 100000, "from_bus": 4, "to_bus": 7, "p_from_mw": 26.190117178262206, "q_from_mvar": -14.212170121258735, "loading_percent": 0.29597012174561227, "is_violation": false}, {"line_id": 100001, "from_bus": 4, "to_bus": 9, "p_from_mw": 15.049438692277823, "q_from_mvar": -4.019832496657285, "loading_percent": 0.15472099506766682, "is_violation": false}, {"line_id": 100002, "from_bus": 5, "to_bus": 6, "p_from_mw": 40.27718633087952, "q_from_mvar": 9.962324100272543, "loading_percent": 0.4129328254066837, "is_violation": false}, {"line_id": 100003, "from_bus": 7, "to_bus": 8, "p_from_mw": -1.1337509195497252e-14, "q_from_mvar": -12.322188494461283, "loading_percent": 0.11635553050290351, "is_violation": false}, {"line_id": 100004, "from_bus": 7, "to_bus": 9, "p_from_mw": 26.190117176091203, "q_from_mvar": -3.6072548996459184, "loading_percent": 0.2496418714606982, "is_violation": false}], "total_generation_mw": 256.18082688886847, "total_load_mw": 243.61650602741778, "total_loss_mw": 12.56432087524824, "voltage_violations": [{"bus_id": 1, "vm_pu": 1.06, "va_deg": 0.0, "is_violation": true, "violation_type": "overvoltage"}, {"bus_id": 6, "vm_pu": 1.0699999999999998, "va_deg": -14.91333618322415, "is_violation": true, "violation_type": "overvoltage"}, {"bus_id": 7, "vm_pu": 1.0697089335688945, "va_deg": -13.649478449738353, "is_violation": true, "violation_type": "overvoltage"}, {"bus_id": 8, "vm_pu": 1.0899999999999999, "va_deg": -13.649478449738353, "is_violation": true, "violation_type": "overvoltage"}, {"bus_id": 9, "vm_pu": 1.0737565356059877, "va_deg": -15.086841081114438, "is_violation": true, "violation_type": "overvoltage"}, {"bus_id": 10, "vm_pu": 1.0658902023327828, "va_deg": -15.344038712816088, "is_violation": true, "violation_type": "overvoltage"}, {"bus_id": 11, "vm_pu": 1.064397208823757, "va_deg": -15.276727204219151, "is_violation": true, "violation_type": "overvoltage"}, {"bus_id": 12, "vm_pu": 1.0554489080830203, "va_deg": -15.772536816189216, "is_violation": true, "violation_type": "overvoltage"}, {"bus_id": 13, "vm_pu": 1.0517322491870134, "va_deg": -15.838677748733039, "is_violation": true, "violation_type": "overvoltage"}], "thermal_violations": [], "summary_text": "", "solver_backend": "pandapower", "llm_prompt": null, "llm_response": null}
[tool run_powerflow]   (gate: pass)
{"case_name": "case14", "converged": true, "bus_voltages": [{"bus_id": 1, "vm_pu": 1.06, "va_deg": 0.0, "is_violation": true, "violation_type": "overvoltage"}, {"bus_id": 2, "vm_pu": 1.0450000000000002, "va_deg": -4.1339545556712745, "is_violation": false, "violation_type": null}, {"bus_id": 3, "vm_pu": 1.01, "va_deg": -12.355371041492045, "is_violation": false, "violation_type": null}, {"bus_id": 4, "vm_pu": 1.0169530964219557, "va_deg": -10.82717571956562, "is_violation": false, "violation_type": null}, {"bus_id": 5, "vm_pu": 1.0149364872045445, "va_deg": -9.91574340485343, "is_violation": false, "violation_type": null}, {"bus_id": 6, "vm_pu": 1.0699999999999998, "va_deg": -14.91333618322415, "is_violation": true, "violation_type": "overvoltage"}, {"bus_id": 7, "vm_pu": 1.0697089335688945, "va_deg": -13.649478449738353, "is_violation": true, "violation_type": "overvoltage"}, {"bus_id": 8, "vm_pu": 1.0899999999999999, "va_deg": -13.649478449738353, "is_violation": true, "violation_type": "overvoltage"}, {"bus_id": 9, "vm_pu": 1.0737565356059877, "va_deg": -15.086841081114438, "is_violation": true, "violation_type": "overvoltage"}, {"bus_id": 10, "vm_pu": 1.0658902023327828, "va_deg": -15.344038712816088, "is_violation": true, "violation_type": "overvoltage"}, {"bus_id": 11, "vm_pu": 1.064397208823757, "va_deg": -15.276727204219151, "is_violation": true, "violation_type": "overvoltage"}, {"bus_id": 12, "vm_pu": 1.0554489080830203, "va_deg": -15.772536816189216, "is_violation": true, "violation_type": "overvoltage"}, {"bus_id": 13, "vm_pu": 1.0517322491870134, "va_deg": -15.838677748733039, "is_violation": true, "violation_type": "overvoltage"}, {"bus_id": 14, "vm_pu": 1.0448637960749778, "va_deg": -16.477731796596586, "is_violation": false, "violation_type": null}], "line_flows": [{"line_id": 0, "from_bus": 1, "to_bus": 2, "p_from_mw": 131.2688697198013, "q_from_mvar": -14.218516502483006, "loading_percent": 1.2582110782032938, "is_violation": false}, {"line_id": 1, "from_bus": 1, "to_bus": 5, "p_from_mw": 85.00565315308522, "q_from_mvar": 5.265672668654163, "loading_percent": 0.8120484613796018, "is_violation": false}, {"line_id": 2, "from_bus": 2, "to_bus": 3, "p_from_mw": 77.55427991409746, "q_from_mvar": 3.1543879412055413, "loading_percent": 0.7502784011677892, "is_violation": false}, {"line_id": 3, "from_bus": 2, "to_bus": 4, "p_from_mw": 69.52908950371722, "q_from_mvar": -4.04073342168625, "loading_percent": 0.6732048292083797, "is_violation": false}, {"line_id": 4, "from_bus": 2, "to_bus": 5, "p_from_mw": 0.0, "q_from_mvar": 0.0, "loading_percent": 0.0, "is_violation": false}, {"line_id": 5, "from_bus": 3, "to_bus": 4, "p_from_mw": -15.20673290045581, "q_from_mvar": 1.4126970232302491, "loading_percent": 0.1543283847848658, "is_violation": false}, {"line_id": 6, "from_bus": 4, "to_bus": 5, "p_from_mw": -33.93563410491793, "q_from_mvar": 15.938713903768823, "loading_percent": 0.3723964646278368, "is_violation": false}, {"line_id": 7, "from_bus": 6, "to_bus": 11, "p_from_mw": 4.13379141463084, "q_from_mvar": 1.0515927581634972, "loading_percent": 0.04026670224126957, "is_violation": false}, {"line_id": 8, "from_bus": 6, "to_bus": 12, "p_from_mw": 7.773646389481459, "q_from_mvar": 2.401023053539443, "loading_percent": 0.07680543400973562, "is_violation": false}, {"line_id": 9, "from_bus": 6, "to_bus": 13, "p_from_mw": 17.193918628395842, "q_from_mvar": 6.3863333353798915, "loading_percent": 0.17314876888592365, "is_violation": false}, {"line_id": 10, "from_bus": 9, "to_bus": 10, "p_from_mw": 8.625711781467714, "q_from_mvar": 6.7623894574138514, "loading_percent": 0.10310739435458298, "is_violation": false}, {"line_id": 11, "from_bus": 9, "to_bus": 14, "p_from_mw": 12.713844088739949, "q_from_mvar": 5.619411275136194, "loading_percent": 0.13076291424093275, "is_violation": false}, {"line_id": 12, "from_bus": 10, "to_bus": 11, "p_from_mw": -0.28738332116181664, "q_from_mvar": 0.9517093207174256, "loading_percent": 0.009421183839873793, "is_violation": false}, {"line_id": 13, "from_bus": 12, "to_bus": 13, "p_from_mw": 1.265136144125567, "q_from_mvar": 0.5646109777546142, "loading_percent": 0.013258831361093711, "is_violation": false}, {"line_id": 14, "from_bus": 13, "to_bus": 14, "p_from_mw": 3.666474027692103, "q_from_mvar": 0.29452991518378874, "loading_percent": 0.03532685506915868, "is_violation": false}, {"line_id": 100000, "from_bus": 4, "to_bus": 7, "p_from_mw": 26.190117178262206, "q_from_mvar": -14.212170121258735, "loading_percent": 0.29597012174561227, "is_violation": false}, {"line_id": 100001, "from_bus": 4, "to_bus": 9, "p_from_mw": 15.049438692277823, "q_from_mvar": -4.019832496657285, "loading_percent": 0.15472099506766682, "is_violation": false}, {"line_id": 100002, "from_bus": 5, "to_bus": 6, "p_from_mw": 40.27718633087952, "q_from_mvar": 9.962324100272543, "loading_percent": 0.4129328254066837, "is_violation": false}, {"line_id": 100003, "from_bus": 7, "to_bus": 8, "p_from_mw": -1.1337509195497252e-14, "q_from_mvar": -12.322188494461283, "loading_percent": 0.11635553050290351, "is_violation": false}, {"line_id": 100004, "from_bus": 7, "to_bus": 9, "p_from_mw": 26.190117176091203, "q_from_mvar": -3.6072548996459184, "loading_percent": 0.2496418714606982, "is_violation": false}], "total_generation_mw": 256.18082688886847, "total_load_mw": 243.61650602741778, "total_loss_mw": 12.56432087524824, "voltage_violations": [{"bus_id": 1, "vm_pu": 1.06, "va_deg": 0.0, "is_violation": true, "violation_type": "overvoltage"}, {"bus_id": 6, "vm_pu": 1.0699999999999998, "va_deg": -14.91333618322415, "is_violation": true, "violation_type": "overvoltage"}, {"bus_id": 7, "vm_pu": 1.0697089335688945, "va_deg": -13.649478449738353, "is_violation": true, "violation_type": "overvoltage"}, {"bus_id": 8, "vm_pu": 1.0899999999999999, "va_deg": -13.649478449738353, "is_violation": true, "violation_type": "overvoltage"}, {"bus_id": 9, "vm_pu": 1.0737565356059877, "va_deg": -15.086841081114438, "is_violation": true, "violation_type": "overvoltage"}, {"bus_id": 10, "vm_pu": 1.0658902023327828, "va_deg": -15.344038712816088, "is_violation": true, "violation_type": "overvoltage"}, {"bus_id": 11, "vm_pu": 1.064397208823757, "va_deg": -15.276727204219151, "is_violation": true, "violation_type": "overvoltage"}, {"bus_id": 12, "vm_pu": 1.0554489080830203, "va_deg": -15.772536816189216, "is_violation": true, "violation_type": "overvoltage"}, {"bus_id": 13, "vm_pu": 1.0517322491870134, "va_deg": -15.838677748733039, "is_violation": true, "violation_type": "overvoltage"}], "thermal_violations": [], "summary_text": "", "solver_backend": "pandapower", "llm_prompt": null, "llm_response": null}
[tool get_status]   (gate: not applied)
{"active_case": "case14", "network_info": {"case_name": "case14", "n_buses": 14, "n_generators": 5, "n_lines": 20, "n_loads": 11, "total_load_mw": 243.61650602741778, "total_gen_capacity_mw": 772.4000000000001}, "has_last_result": true, "last_result_summary": {"converged": true, "total_load_mw": 243.61650602741778, "total_generation_mw": 256.18082688886847, "total_loss_mw": 12.56432087524824, "n_voltage_violations": 9, "n_thermal_violations": 0, "solver_backend": "pandapower"}}

--- round 3 ---
[assistant final]   (8979 in / 259 out tokens, 3.4 s)
1. **One-sentence summary**  
Case14 was loaded, line **2–5** was disconnected, the active load at **bus 9** was set to **19.9 MW**, the final AC power flow **converged**, and **no line loading exceeded 100%** in the final solved state.

2. **Key numbers**  
- Total load: **243.61650602741778 MW**  
- Total generation: **256.18082688886847 MW**  
- Total losses: **12.56432087524824 MW**  
- Voltage range: **1.01 pu to 1.0899999999999999 pu**

3. **Violations, if any**  
- **Lines above 100% loading:** **none**  
- The final result reported **0 thermal violations**.  
- There were **9 voltage violations** (overvoltage) at buses **1, 6, 7, 8, 9, 10, 11, 12, 13**.

4. **Suggested next step**  
If you want, I can next list the **most heavily loaded lines** in descending order or help investigate the **overvoltage violations**.
